IEEE_118_final_conversion_out.txt
ANDES 1.10.0
Copyright (C) 2015-2026 Hantao Cui

ANDES comes with ABSOLUTELY NO WARRANTY
Case file: /home/teng/benchmark_118_10_8500_Andes_OpenDSS/IEEE_118_final_conversion.xlsx
Report time: 04/08/2026 02:25:32 PM

Power flow converged in 4 iterations.
Flat-start: No

Statistics:
Buses                            118
Generators                        54
Committed Gens                    34
Loads                             92
Shunts                            14
Lines                            179
Transformers      
Areas                              1

EXTENDED SUMMARY:
                              P (pu)            Q (pu)

Generation                    39.193            9.0725
Load                          37.703            14.557

BUS DATA:
                            Bus Name            Vm(pu)          Va(rad.)

1                           RIVERSDE           0.94203          -0.01411
2                            POKAGON           0.94535         -0.032174
3                           HICKRYCK           0.95947           0.01375
4                           NWCARLSL             0.998           0.10206
5                              OLIVE            1.0014           0.11085
6                           KANKAKEE           0.98506           0.05608
7                           JACKSNRD           0.98628          0.044811
8                              OLIVE             1.015           0.21365
9                            BEQUINE            1.0429           0.34025
10                             BREED              1.05           0.47257
11                          SOUTHBND           0.98464          0.049418
12                          TWINBRCH              0.99          0.032789
13                           CONCORD           0.96698          0.036102
14                          GOSHENJT           0.98234          0.034606
15                           FTWAYNE           0.96574          0.069991
16                             N_ E_           0.98219          0.045602
17                          SORENSON           0.99181           0.11632
18                          MCKINLEY           0.96224          0.080903
19                           LINCOLN           0.95847          0.072893
20                             ADAMS           0.95347          0.094348
21                               JAY           0.95456           0.12664
22                          RANDOLPH           0.96661           0.17644
23                          COLLCRNR           0.99945           0.27026
24                           TRENTON             0.992           0.28283
25                          TANNRSCK              1.05           0.38125
26                          TANNRSCK             1.015           0.40858
27                           MADISON             0.968           0.15856
28                            MULLIN           0.96156           0.12665
29                             GRANT           0.96324           0.10731
30                          SORENSON            0.9833           0.20824
31                           DEERCRK             0.967           0.10862
32                          DELAWARE           0.96658           0.14813
33                          HAVILAND           0.96862          0.077404
34                          ROCKHILL           0.98537           0.10867
35                          WESTLIMA           0.98015           0.10134
36                          STERLING           0.97957           0.10136
37                          EASTLIMA           0.99094            0.1172
38                          EASTLIMA            0.9586           0.20714
39                          NWLIBRTY           0.97031          0.067831
40                          WEST END              0.97          0.054659
41                          S_TIFFIN           0.96673          0.051306
42                            HOWARD             0.985          0.091287
43                          S_KENTON           0.97634           0.12496
44                          WMVERNON           0.98217           0.19364
45                          N_NEWARK           0.98448           0.23486
46                          W_LANCST             1.005           0.29071
47                          CROOKSVL            1.0163           0.33536
48                          ZANESVLL            1.0206           0.31786
49                             PHILO             1.025           0.33589
50                          WCAMBRDG            1.0016           0.30214
51                          NEWCMRST           0.96766           0.25873
52                          SCOSHOCT           0.95753           0.24266
53                           WOOSTER           0.94631           0.22714
54                            TORREY             0.955           0.24414
55                          WAGENHLS           0.95248           0.23911
56                          SUNNYSDE           0.95538           0.24302
57                          WNWPHIL1           0.97168            0.2614
58                          WNWPHIL2           0.96009           0.24689
59                              TIDD             0.985           0.30347
60                          SWKAMMER           0.99309           0.37219
61                          W_KAMMER             0.995           0.38787
62                           NATRIUM           0.99772           0.37752
63                              TIDD            0.9685           0.36461
64                            KAMMER           0.98357           0.39662
65                          MUSKNGUM             1.005           0.45348
66                          MUSKNGUM              1.05           0.45011
67                          SUMMERFL            1.0195           0.40321
68                             SPORN            1.0033           0.46223
69                             SPORN             1.035            0.5236
70                          PORTSMTH            0.9781           0.37164
71                          NPORTSMT           0.98374           0.35831
72                          HILLSBRO              0.98           0.31142
73                          SARGENTS             0.991           0.35401
74                          BELLEFNT            0.9554            0.3617
75                          STHPOINT           0.96347           0.38672
76                            DARRAH           0.93591           0.36849
77                            TURNER            1.0034           0.45565
78                          CHEMICAL            1.0011           0.44994
79                          CAPITLHL            1.0075           0.45448
80                          CABINCRK              1.04           0.49179
81                           KANAWHA           0.99692           0.47377
82                             LOGAN           0.98851           0.46308
83                            SPRIGG           0.98516           0.48359
84                          BETSYLNE           0.98171           0.52723
85                          BEAVERCK           0.98756           0.55401
86                            HAZARD           0.98833           0.53049
87                          PINEVLLE             1.015           0.53523
88                           FREMONT           0.98851            0.6087
89                          CLINCHRV             1.005           0.67957
90                           HOLSTON             0.985           0.56796
91                          HOLSTONT              0.98           0.56831
92                          SALTVLLE           0.99331           0.57673
93                          TAZEWELL           0.98754           0.52437
94                          SWITCHBK           0.99085           0.48691
95                          CALDWELL           0.98109           0.47003
96                          BAILEYSV           0.99269           0.46721
97                           SUNDIAL            1.0114           0.47339
98                           BRADLEY            1.0235           0.46487
99                            HINTON              1.01            0.4587
100                         GLEN LYN             1.017            0.4762
101                            WYTHE           0.99289           0.50359
102                           SMYTHE           0.99185           0.55056
103                          CLAYTOR              1.01           0.41111
104                          HANCOCK           0.97442           0.36539
105                          ROANOKE           0.97078            0.3456
106                         CLOVERDL           0.96496           0.34168
107                          REUSENS             0.952            0.2942
108                           BLAINE           0.97002           0.32545
109                         FRANKLIN           0.97001           0.31784
110                         FIELDALE           0.97377           0.30375
111                         DANRIVER              0.98           0.33267
112                         DANVILLE             0.975           0.25002
113                         DEER CRK             0.993            0.1172
114                         WMEDFORD           0.96218           0.14272
115                          MEDFORD           0.96185           0.14264
116                         KYGERCRK             1.005           0.45465
117                            COREY           0.97382         0.0058932
118                         WHUNTNGD           0.94403            0.3701

LINE DATA:
                           Line Name     Fr. Bus (idx)      To Bus (idx)       P From (pu)       Q From (pu)         P To (pu)         Q To (pu)

Line_1                        Line_1                 1                 2           0.13915         -0.083363          -0.13831          0.063508
Line_2                        Line_2                 1                 3          -0.64915          -0.18664           0.65576           0.19857
Line_3                        Line_3                 2                12           -1.0846          -0.33095            1.1114           0.40454
Line_4                        Line_4                 3                 5          -0.89178          -0.14447           0.91305           0.21248
Line_5                        Line_5                 3                12          -0.15398           -0.1541           0.15619           0.12283
Line_6                        Line_6                 4                 5           -1.1374           -0.1678            1.1398           0.17629
Line_7                        Line_7                 4                11           0.74744         -0.022219          -0.73571          0.043643
Line_8                        Line_8                 5                 6             1.023          0.097333           -1.0104         -0.054457
Line_9                        Line_9                 8                 5            3.9658            1.3263           -3.9658          -0.88658
Line_10                      Line_10                 5                11           0.88999       -0.00062898          -0.87395          0.037365
Line_11                      Line_11                 6                 7           0.49044          -0.16554          -0.48918           0.16592
Line_12                      Line_12                 7                12           0.29918          -0.18592          -0.29809           0.18167
Line_13                      Line_13                 8                 9           -4.4063          -0.89733            4.4525           0.24429
Line_14                      Line_14                 8                30           0.16055           0.36015          -0.15881          -0.85304
Line_15                      Line_15                 9                10           -4.4525          -0.24429               4.5          -0.51042
Line_16                      Line_16                11                12           0.68433          -0.47243           -0.6801           0.48147
Line_17                      Line_17                11                13           0.22533           0.16142           -0.2235          -0.17326
Line_18                      Line_18                12                14         0.0069872          0.096263        -0.0067435          -0.11312
Line_19                      Line_19                12                16          -0.11795           0.11316           0.11858          -0.13149
Line_20                      Line_20                12               117           0.20153          0.051973              -0.2             -0.08
Line_21                      Line_21                13                15           -0.1165          0.013264           0.11773         -0.067777
Line_22                      Line_22                14                15          -0.13326           0.10312           0.13535          -0.14389
Line_23                      Line_23                15                17           -1.0832          -0.24621            1.1005           0.26102
Line_24                      Line_24                15                19         -0.012703           0.17744          0.013132          -0.18538
Line_25                      Line_25                15                33         -0.057171         -0.019572          0.057305        -0.0098664
Line_26                      Line_26                16                17          -0.36858          0.031487           0.37512         -0.050978
Line_27                      Line_27                17                18           0.76796           0.39924          -0.75853          -0.37291
Line_28                      Line_28                30                17            2.4032           0.96749           -2.4032          -0.71928
Line_29                      Line_29                17                31          0.087016           0.11161         -0.085821          -0.14595
Line_30                      Line_30                17               113         -0.037382         -0.031612          0.037402          0.024114
Line_31                      Line_31                18                19           0.15853           0.03291           -0.1582         -0.042027
Line_32                      Line_32                19                20          -0.15135          0.061616           0.15213          -0.08521
Line_33                      Line_33                19                34          -0.15358         -0.084205           0.15576          0.031653
Line_34                      Line_34                20                21          -0.33213           0.05521           0.33444         -0.064173
Line_35                      Line_35                21                22          -0.47444         -0.015827            0.4796          0.017092
Line_36                      Line_36                22                23           -0.5796         -0.067092           0.59198          0.085605
Line_37                      Line_37                23                24          -0.19658           0.18191           0.19768          -0.22727
Line_38                      Line_38                23                25           -1.5032           -0.3009            1.5395           0.39641
Line_39                      Line_39                23                32            1.0378          0.003385           -1.0035         0.0079958
Line_40                      Line_40                24                70          -0.20889        -0.0062517           0.20899         -0.073654
Line_41                      Line_41                24                72           -0.1188          0.068329           0.11992          -0.11126
Line_42                      Line_42                26                25           0.79435           0.21268          -0.79435          -0.18957
Line_43                      Line_43                25                27            1.4548           0.30112           -1.3892          -0.14462
Line_44                      Line_44                26                30            2.3456         -0.079406           -2.3018           -0.3554
Line_45                      Line_45                27                28           0.34754        -0.0094043          -0.34508        0.00032011
Line_46                      Line_46                27                32           0.12371         -0.027666          -0.12332          0.010906
Line_47                      Line_47                27               115           0.20796          0.026606          -0.20718         -0.041445
Line_48                      Line_48                28                29           0.17508          -0.07032           -0.1742          0.051761
Line_49                      Line_49                29                31           -0.0658         -0.091761          0.065941           0.08446
Line_50                      Line_50                30                38          0.057381           0.24095         -0.056415          -0.62761
Line_51                      Line_51                31                32          -0.34012           0.10269           0.34422          -0.11258
Line_52                      Line_52                32               113           0.09961          -0.17791         -0.097402           0.13547
Line_53                      Line_53                32               114          0.092984          0.041595         -0.092824         -0.056011
Line_54                      Line_54                33                37          -0.28731         -0.080134           0.29113          0.058088
Line_55                      Line_55                34                36           0.30114           0.11331          -0.30021          -0.11591
Line_56                      Line_56                34                37          -0.97144          -0.32074           0.97419           0.32124
Line_57                      Line_57                34                43         -0.075461          0.051716          0.075925         -0.090485
Line_58                      Line_58                35                36          0.009797          0.051544        -0.0097902         -0.054086
Line_59                      Line_59                35                37           -0.3398          -0.14154           0.34133           0.13566
Line_60                      Line_60                38                37            2.4335            1.0472           -2.4335          -0.79677
Line_61                      Line_61                37                39           0.46657          0.049374          -0.45933         -0.051419
Line_62                      Line_62                37                40           0.36024         -0.013077           -0.3524        -0.0050915
Line_63                      Line_63                38                65            -2.377          -0.41956            2.4325          0.017415
Line_64                      Line_64                39                40           0.18933         -0.058581          -0.18857          0.046446
Line_65                      Line_65                40                41          0.077173          0.036609         -0.077053         -0.047667
Line_66                      Line_66                40                42           -0.1962         -0.038426           0.19849         0.0014363
Line_67                      Line_67                41                42          -0.29295         -0.052333           0.29677          0.032157
Line_68                      Line_68                42                49           -1.4553           0.18127             1.536         0.0091157
Line_69                      Line_69                43                44          -0.25592          0.020485           0.26026         -0.061184
Line_70                      Line_70                44                45          -0.42026           0.07765           0.42454         -0.082082
Line_71                      Line_71                45                46          -0.41204         -0.032164           0.41906          0.023098
Line_72                      Line_72                45                49           -0.5425        -0.0088348           0.56328          0.020507
Line_73                      Line_73                46                47          -0.35189         0.0077093           0.35657         -0.024348
Line_74                      Line_74                46                48          -0.15717         -0.054814            0.1587          0.011197
Line_75                      Line_75                47                49         -0.047478           -0.1348          0.047816            0.1192
Line_76                      Line_76                47                69          -0.64909           0.15915           0.68665          -0.11014
Line_77                      Line_77                48                49           -0.3587          0.035046           0.36094         -0.041885
Line_78                      Line_78                49                50           0.51222           0.13534          -0.50502          -0.13429
Line_79                      Line_79                49                51           0.63768           0.20639          -0.61654          -0.18078
Line_80                      Line_80                49                54           0.70866           0.25166          -0.68559          -0.31224
Line_81                      Line_81                49                66           -2.6445          0.086724            2.7045           0.16662
Line_82                      Line_82                49                69          -0.55212           0.15024           0.58422           -0.1325
Line_83                      Line_83                50                57           0.33502          0.094294          -0.32913          -0.10998
Line_84                      Line_84                51                52            0.2783          0.066121           -0.2765         -0.073862
Line_85                      Line_85                51                58           0.16824          0.034661          -0.16742         -0.048957
Line_86                      Line_86                52                53          0.096505          0.023862         -0.096014         -0.058652
Line_87                      Line_87                53                54          -0.13399         -0.051348           0.13455          0.025968
Line_88                      Line_88                54                55          0.068876         0.0085703         -0.068782         -0.026552
Line_89                      Line_89                54                56           0.08888         -0.066472         -0.088844          0.059918
Line_90                      Line_90                54                59          -0.25672         -0.088682           0.26056          0.049921
Line_91                      Line_91                55                56          -0.26631          -0.09805           0.26674          0.095981
Line_92                      Line_92                55                59          -0.29491         -0.095398            0.2997          0.064244
Line_93                      Line_93                56                57          -0.20724         -0.097123           0.20913          0.079983
Line_94                      Line_94                56                58         -0.047305         -0.040824          0.047423          0.018957
Line_95                      Line_95                56                59          -0.76336          -0.19795           0.77772            0.1014
Line_96                      Line_96                59                60          -0.45028          0.041146           0.45702         -0.047099
Line_97                      Line_97                59                61          -0.53455          0.055661            0.5444         -0.048654
Line_98                      Line_98                63                59            1.5732           0.67157           -1.5732          -0.56061
Line_99                      Line_99                60                61           -1.1302          0.082587            1.1336         -0.079378
Line_100                    Line_100                60                62          -0.10682         -0.065488             0.107          0.051784
Line_101                    Line_101                61                62           0.24614          -0.12938          -0.24551           0.12255
Line_102                    Line_102                64                61           0.32418           0.13378          -0.32418          -0.13047
Line_103                    Line_103                62                66          -0.38005          -0.17135           0.38803            0.1468
Line_104                    Line_104                62                67          -0.25144          -0.14298            0.2535           0.12079
Line_105                    Line_105                63                64           -1.5732          -0.67157            1.5783           0.52549
Line_106                    Line_106                64                65           -1.9025          -0.65927            1.9132            0.4036
Line_107                    Line_107                65                66           0.10282           0.72255          -0.10282          -0.70549
Line_108                    Line_108                65                68          -0.53847          -0.16695            0.5389          -0.47139
Line_109                    Line_109                66                67           0.54031           0.19291           -0.5335          -0.19079
Line_110                    Line_110                68                69           -1.8408            1.1601            1.8408            -1.008
Line_111                    Line_111                68                81          -0.53938         -0.039214           0.54012          -0.76043
Line_112                    Line_112                68               116            1.8413          -0.64954             -1.84           0.49911
Line_113                    Line_113                69                70            1.2672            0.1909           -1.2204          -0.11645
Line_114                    Line_114                69                75            1.2089           0.21557           -1.1506          -0.16405
Line_115                    Line_115                69                77           0.73571          0.067334          -0.71966          -0.12272
Line_116                    Line_116                70                71           0.30431          -0.23276          -0.30297           0.22969
Line_117                    Line_117                70                74           0.11097           0.11844          -0.10969          -0.14571
Line_118                    Line_118                70                75         -0.063897           0.10443          0.064742          -0.13558
Line_119                    Line_119                71                72           0.24269         -0.055322          -0.23992          0.023646
Line_120                    Line_120                71                73          0.060287          -0.17437             -0.06           0.16439
Line_121                    Line_121                74                75          -0.57031         -0.014753           0.57469          0.019706
Line_122                    Line_122                75                77          -0.35529         -0.097049           0.36382          0.077248
Line_123                    Line_123                75               118           0.39649           0.26697          -0.39287          -0.26587
Line_124                    Line_124                76                77          -0.61747           -0.2333           0.63919           0.27105
Line_125                    Line_125                76               118         -0.062529           -0.1267          0.062875           0.11587
Line_126                    Line_126                77                78             0.476          0.036842          -0.47515         -0.046724
Line_127                    Line_127                77                80           -1.3468          -0.68406            1.3708           0.68467
Line_128                    Line_128                77                82         -0.022502           0.14164          0.023506          -0.21985
Line_129                    Line_129                78                79          -0.23485          -0.21328           0.23539           0.20916
Line_130                    Line_130                79                80          -0.62539          -0.32616           0.63294           0.34064
Line_131                    Line_131                81                80          -0.54012           0.76043           0.54012          -0.73211
Line_132                    Line_132                80                96           0.18553           0.20904          -0.18257          -0.24495
Line_133                    Line_133                80                97           0.26009           0.25587          -0.25772          -0.27048
Line_134                    Line_134                80                98           0.28716          0.083606          -0.28513          -0.10484
Line_135                    Line_135                80                99           0.19333          0.082114          -0.19124             -0.13
Line_136                    Line_136                82                83           -0.4717           0.22163           0.47491          -0.24808
Line_137                    Line_137                82                96         -0.091809         -0.076346           0.09199          0.023556
Line_138                    Line_138                83                84          -0.24846           0.13783           0.25389          -0.15131
Line_139                    Line_139                83                85          -0.42645           0.10731           0.43519          -0.11108
Line_140                    Line_140                84                85          -0.36389           0.08131           0.36827          -0.08396
Line_141                    Line_141                85                86           0.17163         -0.066262          -0.17047           0.04339
Line_142                    Line_142                85                88          -0.50278          0.090211           0.50818         -0.089593
Line_143                    Line_143                85                89          -0.71232          0.021094            0.7248            0.0226
Line_144                    Line_144                86                87         -0.039526          -0.14339              0.04           0.10221
Line_145                    Line_145                88                89          -0.98818         -0.010407            1.0021          0.062344
Line_146                    Line_146                89                90            1.6887         -0.099759           -1.6427           0.12615
Line_147                    Line_147                89                92            2.6544          -0.15173           -2.5992           0.32328
Line_148                    Line_148                90                91           0.01266          0.044684         -0.012576         -0.065067
Line_149                    Line_149                91                92         -0.087424         -0.091392          0.087962          0.061348
Line_150                    Line_150                92                93           0.57731          -0.10296          -0.56837           0.11095
Line_151                    Line_151                92                94           0.52269          -0.13854          -0.50869           0.14458
Line_152                    Line_152                92               100           0.31475          -0.16969           -0.3071           0.12648
Line_153                    Line_153                92               102           0.44653         -0.073433          -0.44399          0.070555
Line_154                    Line_154                93                94           0.44837          -0.18095           -0.4431            0.1799
Line_155                    Line_155                94                95           0.40884          0.096169          -0.40646         -0.099114
Line_156                    Line_156                94                96           0.19806         -0.091436          -0.19681          0.072854
Line_157                    Line_157                94               100           0.04489          -0.48921         -0.041024           0.44092
Line_158                    Line_158                95                96         -0.013543          -0.21089          0.014284            0.1989
Line_159                    Line_159                96                97           -0.1069          -0.20036           0.10772           0.18048
Line_160                    Line_160                98               100         -0.054867          0.024839          0.055075          -0.07345
Line_161                    Line_161                99               100          -0.22876         -0.045394           0.22971          0.027472
Line_162                    Line_162               100               101           -0.1677            0.2171           0.16992          -0.24012
Line_163                    Line_163               100               103            1.2139          -0.22064           -1.1906           0.24227
Line_164                    Line_164               100               104           0.56319           0.08957          -0.54876         -0.077946
Line_165                    Line_165               100               106           0.60392          0.078239          -0.58187         -0.055723
Line_166                    Line_166               101               102          -0.38992          0.090118           0.39399          -0.10055
Line_167                    Line_167               103               104            0.3245           0.11712          -0.31882           -0.1379
Line_168                    Line_168               103               105           0.43261          0.093456          -0.42211           -0.1016
Line_169                    Line_169               103               110           0.60345          0.079512           -0.5891         -0.058275
Line_170                    Line_170               104               105           0.48758         -0.034158          -0.48508          0.034329
Line_171                    Line_171               105               106          0.087906          0.074287         -0.087694         -0.086891
Line_172                    Line_172               105               107           0.26778         0.0065108           -0.2637         -0.036056
Line_173                    Line_173               105               108            0.2415         -0.085045          -0.23973          0.072466
Line_174                    Line_174               106               107           0.23956         -0.017386           -0.2363         -0.014694
Line_175                    Line_175               108               109           0.21973         -0.082466          -0.21912          0.076983
Line_176                    Line_176               109               110           0.13912          -0.10698          -0.13826          0.090239
Line_177                    Line_177               110               111          -0.35702          0.019546              0.36         -0.028417
Line_178                    Line_178               110               112           0.69439          -0.29462             -0.68           0.27304
Line_179                    Line_179               114               115          0.012824          0.026011         -0.012822         -0.028555

OTHER ALGEBRAIC VARIABLES:
                                    

q PV 1                             0
q PV 2                     -0.070023
q PV 3                             0
q PV 4                       0.78909
q PV 5                      -0.51042
q PV 6                        1.5519
q PV 7                             0
q PV 8                             0
q PV 9                             0
q PV 10                      -0.1652
q PV 11                      0.50796
q PV 12                      0.13327
q PV 13                    -0.025089
q PV 14                       0.3112
q PV 15                            0
q PV 16                            0
q PV 17                            0
q PV 18                      0.26954
q PV 19                      0.44487
q PV 20                    -0.025009
q PV 21                       1.2373
q PV 22                     -0.11285
q PV 23                            0
q PV 24                            0
q PV 25                      0.88177
q PV 26                     -0.38789
q PV 27                            0
q PV 28                      0.97661
q PV 29                    -0.019159
q PV 31                            0
q PV 32                    -0.087618
q PV 33                      0.16439
q PV 34                            0
q PV 35                            0
q PV 36                            0
q PV 37                       1.1838
q PV 38                            0
q PV 39                      0.10221
q PV 40                     -0.16654
q PV 41                      0.59084
q PV 42                     -0.15646
q PV 43                            0
q PV 44                     -0.17539
q PV 45                       0.8657
q PV 46                      0.69236
q PV 47                            0
q PV 48                            0
q PV 49                     0.014872
q PV 50                            0
q PV 51                    -0.028417
q PV 52                      0.40304
q PV 53                      0.15958
q PV 54                      0.49911
q Slack 30                  -0.77684
p Slack 30                    6.3234

